
     RDKit          3D

 28 31  0  0  0  0  0  0  0  0999 V2000
   -6.2128   -7.8842   -0.9843 F   0  0  0  0  0  0  0  0  0  0  0  0
   -4.9614   -7.3867   -0.8855 C   0  0  0  0  0  0  0  0  0  0  0  0
   -4.3748   -6.8876   -2.0188 C   0  0  0  0  0  0  0  0  0  0  0  0
   -3.1158   -6.3816   -1.9440 C   0  0  0  0  0  0  0  0  0  0  0  0
   -2.3746   -6.3409   -0.7590 C   0  0  0  0  0  0  0  0  0  0  0  0
   -0.7637   -5.6524   -0.8457 S   0  0  0  0  0  0  0  0  0  0  0  0
   -0.7062   -3.9097   -0.5524 C   0  0  0  0  0  0  0  0  0  0  0  0
    0.5209   -3.2798   -0.6002 C   0  0  0  0  0  0  0  0  0  0  0  0
    0.6017   -1.9070   -0.3737 C   0  0  0  0  0  0  0  0  0  0  0  0
   -0.5400   -1.1555   -0.0984 C   0  0  0  0  0  0  0  0  0  0  0  0
   -0.4828    0.2085    0.1296 C   0  0  0  0  0  0  0  0  0  0  0  0
    0.7778    0.9059    0.0891 C   0  0  0  0  0  0  0  0  0  0  0  0
    1.4937    1.0127    1.2613 C   0  0  0  0  0  0  0  0  0  0  0  0
    0.9312    0.3363    2.7878 Cl  0  0  0  0  0  0  0  0  0  0  0  0
    2.6985    1.6801    1.2186 C   0  0  0  0  0  0  0  0  0  0  0  0
    3.1586    2.2216    0.0186 C   0  0  0  0  0  0  0  0  0  0  0  0
    2.4167    2.0970   -1.1386 C   0  0  0  0  0  0  0  0  0  0  0  0
    1.2100    1.4321   -1.1108 C   0  0  0  0  0  0  0  0  0  0  0  0
    0.2378    1.2592   -2.5871 Cl  0  0  0  0  0  0  0  0  0  0  0  0
   -1.6382    0.9203    0.3997 C   0  0  0  0  0  0  0  0  0  0  0  0
   -1.6422    2.1654    0.6150 O   0  0  0  0  0  0  0  0  0  0  0  0
   -2.7774    0.2046    0.4215 N   0  0  0  0  0  0  0  0  0  0  0  0
   -2.8093   -1.1217    0.1968 C   0  0  0  0  0  0  0  0  0  0  0  0
   -1.7000   -1.8387   -0.0684 N   0  0  0  0  0  0  0  0  0  0  0  0
   -1.7739   -3.1403   -0.2835 N   0  0  0  0  0  0  0  0  0  0  0  0
   -2.9728   -6.8413    0.3583 C   0  0  0  0  0  0  0  0  0  0  0  0
   -2.2689   -6.8105    1.5184 F   0  0  0  0  0  0  0  0  0  0  0  0
   -4.2504   -7.3607    0.3086 C   0  0  0  0  0  0  0  0  0  0  0  0
  1  2  1  0
  2  3  2  0
  3  4  1  0
  4  5  2  0
  5  6  1  0
  6  7  1  0
  7  8  1  0
  8  9  2  0
  9 10  1  0
 10 11  2  0
 11 12  1  0
 12 13  2  0
 13 14  1  0
 13 15  1  0
 15 16  2  0
 16 17  1  0
 17 18  2  0
 12 18  1  0
 18 19  1  0
 11 20  1  0
 20 21  2  0
 20 22  1  0
 22 23  2  0
 23 24  1  0
 10 24  1  0
 24 25  1  0
  7 25  2  0
  5 26  1  0
 26 27  1  0
 26 28  2  0
  2 28  1  0
M  END
>  <mr_id>  (1) 
13932

>  <SMI>  (1) 
Fc1ccc(Sc2ccc3c(c4c(Cl)cccc4Cl)c(=O)ncn3n2)c(F)c1

>  <O3DAScore>  (1) 
99.927168421437159

>  <EnergyAbs>  (1) 
82.697693191107405

>  <EnergyDelta>  (1) 
1.5000914700144961

$$$$
